Version 4.1
SHEET 1 880 680
WIRE 176 -2192 144 -2192
WIRE 176 -2160 176 -2192
WIRE 144 -2128 144 -2192
WIRE 144 -2016 144 -2048
WIRE 96 -1936 16 -1936
WIRE 144 -1888 144 -1920
FLAG 16 -1856 0
FLAG 176 -2160 0
FLAG 144 -1808 0
SYMBOL nmos 96 -2016 R0
SYMATTR InstName M1
SYMATTR Value Si7336ADP
SYMBOL voltage 16 -1952 R0
WINDOW 123 0 0 Left 0
WINDOW 39 0 0 Left 0
SYMATTR InstName V1
SYMATTR Value 5
SYMBOL voltage 144 -2032 R180
WINDOW 0 24 96 Left 2
WINDOW 3 24 16 Left 2
WINDOW 123 0 0 Left 0
WINDOW 39 0 0 Left 0
SYMATTR InstName V2
SYMATTR Value 3
SYMBOL res 128 -1904 R0
SYMATTR InstName R
SYMATTR Value 500
TEXT 144 -2040 Left 2 !.dc V2 0 5 0.1
TEXT 328 -2176 Left 2 ;V1 -> Vgs -> Gate-Source \n     -> V1>V2+VU -> Salida = V2\n     -> V2+VU>V1 -> Salida = Saturada\nV2 -> Vds -> Drain-Source\nVU -> Umbral
